<?xml version="1.0" encoding="UTF-8"?>

<!-- generated on 2024-03-20 14:55:55 by Eclipse SUMO netedit Version 1.19.0
<configuration xmlns:xsi="http://www.w3.org/2001/XMLSchema-instance" xsi:noNamespaceSchemaLocation="http://sumo.dlr.de/xsd/neteditConfiguration.xsd">

    <input>
        <sumo-net-file value="/home/mtl/Downloads/mcity_new.net.xml"/>
    </input>

    <output>
        <output-file value="/home/mtl/Downloads/mcity_new.net.xml"/>
    </output>

    <processing>
        <geometry.min-radius.fix.railways value="false"/>
        <geometry.max-grade.fix value="false"/>
        <offset.disable-normalization value="true"/>
        <lefthand value="0"/>
    </processing>

    <junctions>
        <no-turnarounds value="true"/>
        <junctions.corner-detail value="0"/>
        <junctions.limit-turn-speed value="-1.00"/>
        <rectangular-lane-cut value="0"/>
    </junctions>

    <pedestrian>
        <walkingareas value="0"/>
    </pedestrian>

</configuration>
-->

<net version="1.16" xmlns:xsi="http://www.w3.org/2001/XMLSchema-instance" xsi:noNamespaceSchemaLocation="http://sumo.dlr.de/xsd/net_file.xsd">

    <location netOffset="102.89,281.25" convBoundary="0.00,0.00,218.52,388.73" origBoundary="-102.89,-281.25,115.63,107.48" projParameter="!"/>

    <edge id=":NODE_1_0" function="internal">
        <lane id=":NODE_1_0_0" index="0" speed="7.00" length="36.77" width="5.00" shape="140.66,72.43,270.03 138.58,69.29,269.95 135.91,66.41,269.87 131.90,62.59,269.76 124.45,56.81,269.25 113.56,47.87,269.06"/>
        <lane id=":NODE_1_0_1" index="1" speed="7.00" length="42.15" width="5.00" shape="144.46,72.27,270.08 144.43,69.85,270.02 143.75,67.48,269.94 142.41,64.73,269.85 140.58,61.85,269.77 136.18,57.80,269.64 129.00,53.73,269.27 120.78,50.10,269.13 113.56,47.87,269.06"/>
    </edge>
    <edge id=":NODE_1_2" function="internal">
        <lane id=":NODE_1_2_0" index="0" speed="6.00" length="24.62" width="5.00" shape="136.38,46.11,269.32 131.12,49.81,269.24 126.15,51.08,269.20 119.81,50.11,269.12 113.56,47.87,269.06"/>
    </edge>
    <edge id=":NODE_10_0" function="internal">
        <lane id=":NODE_10_0_0" index="0" speed="6.00" length="21.18" width="4.38" shape="115.62,265.75,274.63 114.76,259.86,274.32 112.71,255.08,274.05 109.49,251.39,273.80 105.08,248.81,273.53"/>
    </edge>
    <edge id=":NODE_10_1" function="internal">
        <lane id=":NODE_10_1_0" index="0" speed="7.00" length="29.43" width="3.65" shape="115.62,265.75,274.63 112.86,236.47,273.48"/>
    </edge>
    <edge id=":NODE_10_2" function="internal">
        <lane id=":NODE_10_2_0" index="0" speed="5.00" length="24.90" width="4.38" shape="125.77,262.61,274.50 121.46,259.51,274.29 115.62,255.34,274.01 109.69,251.36,273.74 105.08,248.81,273.53"/>
    </edge>
    <edge id=":NODE_10_3" function="internal">
        <lane id=":NODE_10_3_0" index="0" speed="6.00" length="29.76" width="3.65" shape="125.77,262.61,274.50 121.39,257.98,274.28 117.27,251.06,274.01 114.17,243.37,273.72 112.86,236.47,273.48"/>
    </edge>
    <edge id=":NODE_10_4" function="internal">
        <lane id=":NODE_10_4_0" index="0" speed="6.00" length="25.73" width="3.27" shape="119.46,236.28,273.40 120.17,244.58,273.73 121.78,251.26,273.99 124.29,256.32,274.21 127.71,259.78,274.40"/>
    </edge>
    <edge id=":NODE_10_5" function="internal">
        <lane id=":NODE_10_5_0" index="0" speed="7.00" length="29.44" width="3.46" shape="119.46,236.28,273.40 119.88,265.69,274.66"/>
    </edge>
    <edge id=":NODE_10_6" function="internal">
        <lane id=":NODE_10_6_0" index="0" speed="5.00" length="21.48" width="4.38" shape="116.44,236.37,273.43 115.92,243.62,273.47 113.86,248.11,273.49 110.24,249.84,273.51 105.08,248.81,273.53"/>
    </edge>
    <edge id=":NODE_10_7" function="internal">
        <lane id=":NODE_10_7_0" index="0" speed="6.00" length="12.92" width="3.65" shape="106.71,244.81,274.03 109.52,245.25,273.91 111.48,244.01,273.81 112.59,241.08,273.68 112.86,236.47,273.48"/>
    </edge>
    <edge id=":NODE_10_8" function="internal">
        <lane id=":NODE_10_8_0" index="0" speed="5.00" length="25.81" width="3.27" shape="106.71,244.81,274.03 111.37,247.53,274.11 117.41,251.93,274.21 123.34,256.51,274.32 127.71,259.78,274.40"/>
    </edge>
    <edge id=":NODE_10_9" function="internal">
        <lane id=":NODE_10_9_0" index="0" speed="6.00" length="25.70" width="3.46" shape="106.71,244.81,274.03 111.49,248.06,274.17 115.69,253.27,274.33 118.69,259.47,274.50 119.88,265.69,274.66"/>
    </edge>
    <edge id=":NODE_11_0" function="internal">
        <lane id=":NODE_11_0_0" index="0" speed="4.00" length="34.92" width="2.90" shape="115.29,215.44,272.89 115.93,203.48,272.77 118.58,194.89,272.67 123.24,189.65,272.60 129.92,187.78,272.53"/>
    </edge>
    <edge id=":NODE_11_1" function="internal">
        <lane id=":NODE_11_1_0" index="0" speed="4.00" length="32.84" width="2.90" shape="115.29,215.44,272.89 115.95,204.49,272.77 118.62,196.63,272.68 123.30,191.86,272.60 129.98,190.18,272.53"/>
    </edge>
    <edge id=":NODE_11_2" function="internal">
        <lane id=":NODE_11_2_0" index="0" speed="5.00" length="19.83" width="3.65" shape="130.28,202.22,272.59 125.15,203.16,272.67 121.54,205.66,272.74 119.45,209.72,272.80 118.87,215.34,272.89"/>
    </edge>
    <edge id=":NODE_11_3" function="internal">
        <lane id=":NODE_11_3_0" index="0" speed="4.00" length="24.77" width="5.00" shape="130.28,202.22,272.59 105.55,203.61,272.32"/>
    </edge>
    <edge id=":NODE_11_4" function="internal">
        <lane id=":NODE_11_4_0" index="0" speed="4.50" length="16.82" width="3.46" shape="130.22,199.80,272.55 121.89,198.45,272.43 115.81,193.80,272.31 115.49,193.15,272.30"/>
    </edge>
    <edge id=":NODE_11_15" function="internal">
        <lane id=":NODE_11_15_0" index="0" speed="4.50" length="19.44" width="3.46" shape="115.49,193.15,272.30 111.98,185.86,272.18 110.40,174.63,272.01"/>
    </edge>
    <edge id=":NODE_11_5" function="internal">
        <lane id=":NODE_11_5_0" index="0" speed="4.50" length="20.90" width="2.90" shape="117.25,174.39,272.09 118.27,180.36,272.22 120.73,184.58,272.32 124.61,187.06,272.42 129.92,187.78,272.53"/>
    </edge>
    <edge id=":NODE_11_6" function="internal">
        <lane id=":NODE_11_6_0" index="0" speed="4.50" length="22.86" width="2.90" shape="117.25,174.39,272.09 118.32,181.38,272.23 120.79,186.34,272.33 124.68,189.27,272.43 129.98,190.18,272.53"/>
    </edge>
    <edge id=":NODE_11_7" function="internal">
        <lane id=":NODE_11_7_0" index="0" speed="6.50" length="40.99" width="3.65" shape="117.25,174.39,272.09 118.87,215.34,272.89"/>
    </edge>
    <edge id=":NODE_11_8" function="internal">
        <lane id=":NODE_11_8_0" index="0" speed="5.50" length="32.59" width="5.00" shape="114.15,174.50,272.09 113.99,187.20,272.18 112.50,196.28,272.24 109.69,201.75,272.29 105.55,203.61,272.32"/>
    </edge>
    <edge id=":NODE_11_9" function="internal">
        <lane id=":NODE_11_9_0" index="0" speed="5.50" length="18.33" width="3.46" shape="105.10,190.77,272.23 107.63,189.66,272.20 109.35,186.59,272.16 110.28,181.59,272.09 110.40,174.63,272.01"/>
    </edge>
    <edge id=":NODE_11_10" function="internal">
        <lane id=":NODE_11_10_0" index="0" speed="4.00" length="25.00" width="2.90" shape="105.10,190.77,272.23 129.92,187.78,272.53"/>
    </edge>
    <edge id=":NODE_11_11" function="internal">
        <lane id=":NODE_11_11_0" index="0" speed="4.00" length="24.89" width="2.90" shape="105.10,190.77,272.23 129.98,190.18,272.53"/>
    </edge>
    <edge id=":NODE_11_12" function="internal">
        <lane id=":NODE_11_12_0" index="0" speed="6.00" length="15.02" width="3.65" shape="105.10,190.77,272.23 110.86,192.07,272.36 115.07,196.60,272.49 116.03,199.37,272.55"/>
    </edge>
    <edge id=":NODE_11_16" function="internal">
        <lane id=":NODE_11_16_0" index="0" speed="6.00" length="16.32" width="3.65" shape="116.03,199.37,272.55 117.74,204.35,272.66 118.87,215.34,272.89"/>
    </edge>
    <edge id=":NODE_11_13" function="internal">
        <lane id=":NODE_11_13_0" index="0" speed="6.00" length="15.17" width="5.00" shape="112.27,215.53,272.89 111.72,210.29,272.69 110.42,206.55,272.54 108.36,204.33,272.43 105.55,203.61,272.32"/>
    </edge>
    <edge id=":NODE_11_14" function="internal">
        <lane id=":NODE_11_14_0" index="0" speed="6.50" length="40.95" width="3.46" shape="112.27,215.53,272.89 110.40,174.63,272.01"/>
    </edge>
    <edge id=":NODE_12_0" function="internal">
        <lane id=":NODE_12_0_0" index="0" speed="6.00" length="13.68" width="3.65" shape="109.37,145.36,271.61 108.71,141.71,271.54 107.02,139.14,271.48 104.29,137.65,271.42 100.53,137.25,271.35"/>
    </edge>
    <edge id=":NODE_12_1" function="internal">
        <lane id=":NODE_12_1_0" index="0" speed="6.00" length="23.80" width="3.46" shape="109.37,145.36,271.61 108.19,121.59,271.24"/>
    </edge>
    <edge id=":NODE_12_2" function="internal">
        <lane id=":NODE_12_2_0" index="0" speed="4.50" length="20.84" width="3.65" shape="115.02,121.18,271.30 115.79,142.00,271.56"/>
    </edge>
    <edge id=":NODE_12_3" function="internal">
        <lane id=":NODE_12_3_0" index="0" speed="5.00" length="7.14" width="3.65" shape="111.90,121.37,271.30 111.32,128.17,271.32 111.20,128.46,271.32"/>
    </edge>
    <edge id=":NODE_12_6" function="internal">
        <lane id=":NODE_12_6_0" index="0" speed="5.00" length="14.96" width="3.65" shape="111.20,128.46,271.32 109.24,133.09,271.33 105.64,136.11,271.34 100.53,137.25,271.35"/>
    </edge>
    <edge id=":NODE_12_4" function="internal">
        <lane id=":NODE_12_4_0" index="0" speed="6.00" length="15.79" width="3.46" shape="100.39,133.01,271.36 104.07,132.19,271.33 106.60,130.02,271.30 107.97,126.48,271.28 108.19,121.59,271.24"/>
    </edge>
    <edge id=":NODE_12_5" function="internal">
        <lane id=":NODE_12_5_0" index="0" speed="5.50" length="19.98" width="3.65" shape="100.39,133.01,271.36 106.96,133.39,271.42 111.71,135.01,271.47 114.65,137.88,271.52 115.79,142.00,271.56"/>
    </edge>
    <edge id=":NODE_13_0" function="internal">
        <lane id=":NODE_13_0_0" index="0" speed="5.50" length="21.31" width="4.20" shape="74.58,278.60,274.43 70.81,275.88,274.19 65.52,273.29,273.89 60.00,271.01,273.58 55.57,269.24,273.34"/>
    </edge>
    <edge id=":NODE_13_1" function="internal">
        <lane id=":NODE_13_1_0" index="0" speed="5.00" length="12.19" width="4.20" shape="65.98,265.51,273.38 63.80,268.14,273.37 61.33,269.64,273.36 58.59,270.01,273.35 55.57,269.24,273.34"/>
    </edge>
    <edge id=":NODE_14_0" function="internal">
        <lane id=":NODE_14_0_0" index="0" speed="5.50" length="16.00" width="3.27" shape="51.52,267.06,273.10 48.27,264.90,272.96 44.74,262.85,272.82 41.14,260.90,272.67 37.69,259.06,272.53"/>
    </edge>
    <edge id=":NODE_14_1" function="internal">
        <lane id=":NODE_14_1_0" index="0" speed="5.00" length="15.91" width="4.20" shape="51.52,267.06,273.10 48.31,263.97,272.96 46.87,260.66,272.85 47.21,257.14,272.74 49.32,253.39,272.60"/>
    </edge>
    <edge id=":NODE_14_2" function="internal">
        <lane id=":NODE_14_2_0" index="0" speed="5.50" length="12.13" width="4.20" shape="38.97,256.69,272.49 41.53,257.78,272.52 44.11,257.59,272.54 46.71,256.13,272.57 49.32,253.39,272.60"/>
    </edge>
    <edge id=":NODE_15_0" function="internal">
        <lane id=":NODE_15_0_0" index="0" speed="5.00" length="14.56" width="3.65" shape="68.71,234.05,272.39 64.73,233.09,272.44 62.21,234.03,272.47 61.14,236.86,272.51 61.52,241.59,272.57"/>
    </edge>
    <edge id=":NODE_15_1" function="internal">
        <lane id=":NODE_15_1_0" index="0" speed="5.00" length="10.83" width="4.38" shape="60.36,225.92,272.21 61.78,226.97,272.24 64.94,228.35,272.31 68.27,229.61,272.37 70.19,230.31,272.41"/>
    </edge>
    <edge id=":NODE_15_2" function="internal">
        <lane id=":NODE_15_2_0" index="0" speed="5.00" length="15.74" width="3.65" shape="60.36,225.92,272.21 60.48,229.78,272.30 60.65,233.79,272.39 60.96,237.77,272.48 61.52,241.59,272.57"/>
    </edge>
    <edge id=":NODE_16_0" function="internal">
        <lane id=":NODE_16_0_0" index="0" speed="5.00" length="6.97" width="4.20" shape="62.29,244.45,272.66 62.85,246.44,272.78 63.25,247.81,272.86 63.83,249.10,272.95 64.93,250.83,273.06"/>
    </edge>
    <edge id=":NODE_16_1" function="internal">
        <lane id=":NODE_16_1_0" index="0" speed="6.50" length="5.13" width="4.20" shape="60.56,248.72,272.78 61.84,248.73,272.85 63.00,249.09,272.92 64.03,249.79,272.99 64.93,250.83,273.06"/>
    </edge>
    <edge id=":NODE_17_0" function="internal">
        <lane id=":NODE_17_0_0" index="0" speed="5.00" length="15.72" width="3.46" shape="52.95,217.12,272.20 52.41,212.01,272.01 50.90,208.43,271.87 48.42,206.38,271.75 44.98,205.86,271.62"/>
    </edge>
    <edge id=":NODE_17_1" function="internal">
        <lane id=":NODE_17_1_0" index="0" speed="5.50" length="35.56" width="4.01" shape="52.95,217.12,272.20 51.56,181.59,271.66"/>
    </edge>
    <edge id=":NODE_17_2" function="internal">
        <lane id=":NODE_17_2_0" index="0" speed="5.00" length="28.19" width="3.83" shape="56.52,216.99,272.15 56.83,206.57,272.09 58.46,199.06,272.04 61.42,194.45,272.01 65.70,192.75,271.98"/>
    </edge>
    <edge id=":NODE_17_3" function="internal">
        <lane id=":NODE_17_3_0" index="0" speed="5.00" length="15.62" width="3.65" shape="66.28,204.33,272.00 63.39,205.15,272.03 61.39,207.51,272.05 60.27,211.41,272.08 60.04,216.87,272.12"/>
    </edge>
    <edge id=":NODE_17_4" function="internal">
        <lane id=":NODE_17_4_0" index="0" speed="5.00" length="21.47" width="3.46" shape="66.28,204.33,272.00 44.98,205.86,271.62"/>
        <lane id=":NODE_17_4_1" index="1" speed="5.00" length="21.47" width="3.46" shape="66.28,204.33,272.00 62.22,204.00,271.94 57.41,203.25,271.87 51.66,202.62,271.78 44.80,202.62,271.67"/>
    </edge>
    <edge id=":NODE_17_6" function="internal">
        <lane id=":NODE_17_6_0" index="0" speed="5.50" length="25.89" width="4.01" shape="66.03,199.43,272.02 60.00,198.39,271.93 55.58,195.07,271.86 52.76,189.47,271.77 51.56,181.59,271.66"/>
    </edge>
    <edge id=":NODE_17_7" function="internal">
        <lane id=":NODE_17_7_0" index="0" speed="5.50" length="15.00" width="3.83" shape="58.68,181.28,271.69 59.31,186.42,271.79 60.68,190.05,271.87 62.81,192.16,271.92 65.70,192.75,271.98"/>
    </edge>
    <edge id=":NODE_17_8" function="internal">
        <lane id=":NODE_17_8_0" index="0" speed="5.50" length="35.62" width="3.65" shape="58.68,181.28,271.69 60.04,216.87,272.12"/>
    </edge>
    <edge id=":NODE_17_9" function="internal">
        <lane id=":NODE_17_9_0" index="0" speed="5.50" length="29.26" width="3.46" shape="55.38,181.42,271.69 55.17,191.85,271.67 53.37,199.40,271.65 49.97,204.07,271.63 44.98,205.86,271.62"/>
        <lane id=":NODE_17_9_1" index="1" speed="5.50" length="26.36" width="3.46" shape="55.38,181.42,271.69 55.10,190.41,271.68 53.24,196.94,271.68 49.81,201.01,271.67 44.80,202.62,271.67"/>
    </edge>
    <edge id=":NODE_17_11" function="internal">
        <lane id=":NODE_17_11_0" index="0" speed="5.50" length="13.27" width="4.01" shape="44.11,190.44,271.56 47.51,189.85,271.59 49.89,188.18,271.61 51.24,185.43,271.63 51.56,181.59,271.66"/>
    </edge>
    <edge id=":NODE_17_12" function="internal">
        <lane id=":NODE_17_12_0" index="0" speed="5.00" length="21.43" width="3.83" shape="44.30,193.84,271.56 65.70,192.75,271.98"/>
    </edge>
    <edge id=":NODE_17_13" function="internal">
        <lane id=":NODE_17_13_0" index="0" speed="5.00" length="28.25" width="3.65" shape="44.49,197.25,271.62 51.04,198.41,271.74 55.81,202.07,271.85 58.81,208.22,271.97 60.04,216.87,272.12"/>
    </edge>
    <edge id=":NODE_18_0" function="internal">
        <lane id=":NODE_18_0_0" index="0" speed="5.50" length="12.92" width="3.46" shape="50.07,147.84,271.40 49.46,143.93,271.27 48.02,141.19,271.18 45.77,139.59,271.09 42.69,139.16,270.99"/>
    </edge>
    <edge id=":NODE_18_1" function="internal">
        <lane id=":NODE_18_1_0" index="0" speed="5.50" length="22.92" width="3.09" shape="50.07,147.84,271.40 50.74,124.93,271.22"/>
    </edge>
    <edge id=":NODE_18_2" function="internal">
        <lane id=":NODE_18_2_0" index="0" speed="6.00" length="5.96" width="3.65" shape="50.07,147.84,271.40 50.81,142.06,271.35 50.88,141.95,271.35"/>
    </edge>
    <edge id=":NODE_18_15" function="internal">
        <lane id=":NODE_18_15_0" index="0" speed="6.00" length="17.44" width="3.65" shape="50.88,141.95,271.35 53.60,137.85,271.31 58.46,135.22,271.26 65.37,134.16,271.20"/>
    </edge>
    <edge id=":NODE_18_3" function="internal">
        <lane id=":NODE_18_3_0" index="0" speed="6.00" length="14.08" width="4.01" shape="65.52,138.40,271.18 61.76,139.08,271.23 59.13,140.82,271.27 57.63,143.64,271.32 57.25,147.53,271.37"/>
        <lane id=":NODE_18_3_1" index="1" speed="6.00" length="17.06" width="4.01" shape="65.52,138.40,271.18 60.19,139.13,271.26 56.44,140.92,271.33 54.28,143.77,271.38 53.71,147.68,271.44"/>
    </edge>
    <edge id=":NODE_18_5" function="internal">
        <lane id=":NODE_18_5_0" index="0" speed="5.50" length="22.84" width="3.46" shape="65.52,138.40,271.18 42.69,139.16,270.99"/>
    </edge>
    <edge id=":NODE_18_6" function="internal">
        <lane id=":NODE_18_6_0" index="0" speed="5.50" length="6.90" width="3.09" shape="65.52,138.40,271.18 59.36,137.73,271.19 58.74,137.39,271.19"/>
    </edge>
    <edge id=":NODE_18_16" function="internal">
        <lane id=":NODE_18_16_0" index="0" speed="5.50" length="15.77" width="3.09" shape="58.74,137.39,271.19 54.85,135.26,271.20 51.97,130.99,271.21 50.74,124.93,271.22"/>
    </edge>
    <edge id=":NODE_18_7" function="internal">
        <lane id=":NODE_18_7_0" index="0" speed="6.00" length="15.12" width="3.65" shape="56.44,124.59,271.19 56.91,128.90,271.19 58.55,131.92,271.19 61.37,133.68,271.20 65.37,134.16,271.20"/>
    </edge>
    <edge id=":NODE_18_8" function="internal">
        <lane id=":NODE_18_8_0" index="0" speed="6.00" length="23.13" width="4.01" shape="56.44,124.59,271.19 57.25,147.53,271.37"/>
        <lane id=":NODE_18_8_1" index="1" speed="6.00" length="23.13" width="4.01" shape="56.44,124.59,271.19 55.89,128.90,271.24 54.84,134.27,271.30 53.91,140.56,271.36 53.71,147.68,271.44"/>
    </edge>
    <edge id=":NODE_18_10" function="internal">
        <lane id=":NODE_18_10_0" index="0" speed="5.50" length="11.08" width="3.46" shape="56.44,124.59,271.19 55.45,130.76,271.13 53.01,134.94,271.09"/>
    </edge>
    <edge id=":NODE_18_17" function="internal">
        <lane id=":NODE_18_17_0" index="0" speed="5.50" length="11.44" width="3.46" shape="53.01,134.94,271.09 52.83,135.24,271.09 48.58,138.04,271.04 42.69,139.16,270.99"/>
    </edge>
    <edge id=":NODE_18_11" function="internal">
        <lane id=":NODE_18_11_0" index="0" speed="5.00" length="15.50" width="3.09" shape="42.55,135.71,270.95 46.37,134.93,271.02 49.00,132.88,271.08 50.46,129.54,271.14 50.74,124.93,271.22"/>
    </edge>
    <edge id=":NODE_18_12" function="internal">
        <lane id=":NODE_18_12_0" index="0" speed="5.50" length="22.87" width="3.65" shape="42.55,135.71,270.95 65.37,134.16,271.20"/>
    </edge>
    <edge id=":NODE_18_13" function="internal">
        <lane id=":NODE_18_13_0" index="0" speed="5.50" length="6.26" width="4.01" shape="42.55,135.71,270.95 48.79,136.28,271.07"/>
        <lane id=":NODE_18_13_1" index="1" speed="5.50" length="4.70" width="4.01" shape="42.55,135.71,270.95 47.20,136.33,271.07"/>
    </edge>
    <edge id=":NODE_18_18" function="internal">
        <lane id=":NODE_18_18_0" index="0" speed="5.50" length="15.16" width="4.01" shape="48.79,136.28,271.07 53.32,138.45,271.17 56.14,142.19,271.26 57.25,147.53,271.37"/>
    </edge>
    <edge id=":NODE_18_19" function="internal">
        <lane id=":NODE_18_19_0" index="0" speed="5.50" length="13.86" width="4.01" shape="47.20,136.33,271.07 50.62,138.54,271.18 52.78,142.32,271.30 53.71,147.68,271.44"/>
    </edge>
    <edge id=":NODE_19_0" function="internal">
        <lane id=":NODE_19_0_0" index="0" speed="5.00" length="22.28" width="3.09" shape="46.48,100.33,270.48 43.48,95.60,270.12 39.60,91.91,269.79 34.86,89.24,269.44 29.25,87.61,269.07"/>
    </edge>
    <edge id=":NODE_19_1" function="internal">
        <lane id=":NODE_19_1_0" index="0" speed="5.00" length="19.75" width="4.38" shape="46.48,100.33,270.48 44.29,96.42,270.23 41.39,91.90,269.92 38.35,87.46,269.62 35.75,83.80,269.36"/>
    </edge>
    <edge id=":NODE_19_2" function="internal">
        <lane id=":NODE_19_2_0" index="0" speed="5.00" length="16.90" width="3.09" shape="46.04,89.27,270.04 42.03,88.74,269.81 37.64,88.43,269.55 33.26,88.12,269.30 29.25,87.61,269.07"/>
    </edge>
    <edge id=":NODE_19_3" function="internal">
        <lane id=":NODE_19_3_0" index="0" speed="5.00" length="12.05" width="4.38" shape="46.04,89.27,270.04 42.77,88.59,269.85 40.15,87.70,269.69 37.90,86.23,269.54 35.75,83.80,269.36"/>
    </edge>
    <edge id=":NODE_2_0" function="internal">
        <lane id=":NODE_2_0_0" index="0" speed="6.50" length="73.53" width="4.20" shape="72.53,3.77,266.44 85.34,5.29,266.82 109.05,8.10,267.54 132.72,11.06,268.25 145.44,13.01,268.63"/>
    </edge>
    <edge id=":NODE_2_1" function="internal">
        <lane id=":NODE_2_1_0" index="0" speed="5.50" length="56.19" width="5.00" shape="72.53,3.77,266.44 82.60,5.64,266.76 100.20,9.34,267.31 117.62,13.50,267.87 127.12,16.72,268.18"/>
    </edge>
    <edge id=":NODE_2_2" function="internal">
        <lane id=":NODE_2_2_0" index="0" speed="7.00" length="39.82" width="4.20" shape="107.31,16.12,267.55 114.37,11.90,267.77 123.08,9.98,268.02 133.44,10.35,268.30 145.44,13.01,268.63"/>
    </edge>
    <edge id=":NODE_2_3" function="internal">
        <lane id=":NODE_2_3_0" index="0" speed="6.00" length="21.73" width="5.00" shape="107.31,16.12,267.55 111.94,13.24,267.71 116.78,12.39,267.85 121.84,13.54,268.00 127.12,16.72,268.18"/>
    </edge>
    <edge id=":NODE_20_0" function="internal">
        <lane id=":NODE_20_0_0" index="0" speed="5.00" length="22.28" width="3.09" shape="30.63,72.76,268.71 29.65,50.51,268.06"/>
    </edge>
    <edge id=":NODE_20_1" function="internal">
        <lane id=":NODE_20_1_0" index="0" speed="5.00" length="17.33" width="4.38" shape="30.63,72.76,268.71 30.55,68.48,268.65 31.35,64.37,268.59 33.03,60.42,268.53 35.59,56.64,268.46"/>
    </edge>
    <edge id=":NODE_20_2" function="internal">
        <lane id=":NODE_20_2_0" index="0" speed="5.00" length="22.74" width="3.09" shape="24.61,71.61,268.40 27.81,67.93,268.33 29.72,63.18,268.25 30.33,57.38,268.16 29.65,50.51,268.06"/>
    </edge>
    <edge id=":NODE_20_3" function="internal">
        <lane id=":NODE_20_3_0" index="0" speed="5.00" length="18.61" width="4.38" shape="24.61,71.61,268.40 27.51,68.48,268.41 30.37,64.39,268.43 33.09,60.17,268.45 35.59,56.64,268.46"/>
    </edge>
    <edge id=":NODE_21_0" function="internal">
        <lane id=":NODE_21_0_0" index="0" speed="5.00" length="11.58" width="4.38" shape="43.26,45.38,268.15 46.00,47.09,268.27 48.12,48.59,268.37 50.33,49.88,268.46 53.34,50.91,268.58"/>
    </edge>
    <edge id=":NODE_21_1" function="internal">
        <lane id=":NODE_21_1_0" index="0" speed="5.00" length="13.25" width="4.38" shape="40.62,52.62,268.47 43.27,51.15,268.50 46.27,50.38,268.52 49.63,50.30,268.55 53.34,50.91,268.58"/>
    </edge>
    <edge id=":NODE_22_0" function="internal">
        <lane id=":NODE_22_0_0" index="0" speed="6.00" length="17.48" width="3.46" shape="72.28,82.55,270.18 68.62,83.38,270.26 65.49,85.62,270.34 62.90,89.24,270.43 60.85,94.26,270.54"/>
    </edge>
    <edge id=":NODE_22_1" function="internal">
        <lane id=":NODE_22_1_0" index="0" speed="5.50" length="19.58" width="4.38" shape="72.28,82.55,270.18 68.02,83.63,270.21 63.13,85.86,270.24 58.26,88.14,270.28 54.00,89.36,270.31"/>
    </edge>
    <edge id=":NODE_22_2" function="internal">
        <lane id=":NODE_22_2_0" index="0" speed="5.50" length="18.56" width="3.46" shape="68.04,77.18,270.01 66.65,81.23,270.13 64.58,85.76,270.28 62.44,90.27,270.42 60.85,94.26,270.54"/>
    </edge>
    <edge id=":NODE_22_3" function="internal">
        <lane id=":NODE_22_3_0" index="0" speed="5.00" length="20.03" width="4.38" shape="68.04,77.18,270.01 66.18,82.15,270.09 63.22,85.83,270.16 59.16,88.24,270.23 54.00,89.36,270.31"/>
    </edge>
    <edge id=":NODE_23_0" function="internal">
        <lane id=":NODE_23_0_0" index="0" speed="5.50" length="30.31" width="3.27" shape="17.26,213.76,271.74 17.01,207.62,271.61 16.55,198.62,271.41 15.97,189.63,271.22 15.39,183.52,271.09"/>
    </edge>
    <edge id=":NODE_23_1" function="internal">
        <lane id=":NODE_23_1_0" index="0" speed="6.00" length="9.16" width="3.46" shape="17.26,213.76,271.74 17.58,205.49,271.56 17.79,204.63,271.54"/>
    </edge>
    <edge id=":NODE_23_2" function="internal">
        <lane id=":NODE_23_2_0" index="0" speed="5.50" length="10.81" width="3.46" shape="17.26,213.76,271.74 17.53,203.70,271.50 17.68,202.97,271.49"/>
    </edge>
    <edge id=":NODE_23_8" function="internal">
        <lane id=":NODE_23_8_0" index="0" speed="6.00" length="13.82" width="3.46" shape="17.79,204.63,271.54 19.07,199.53,271.43 21.72,195.88,271.34 25.54,194.55,271.25"/>
    </edge>
    <edge id=":NODE_23_9" function="internal">
        <lane id=":NODE_23_9_0" index="0" speed="5.50" length="15.78" width="3.46" shape="17.68,202.97,271.49 18.98,196.50,271.33 21.62,192.16,271.21 25.44,190.68,271.12"/>
    </edge>
    <edge id=":NODE_23_3" function="internal">
        <lane id=":NODE_23_3_0" index="0" speed="5.50" length="9.78" width="3.27" shape="26.31,207.00,271.37 23.91,207.55,271.45 22.19,208.86,271.52 21.18,210.93,271.60 20.85,213.76,271.69"/>
    </edge>
    <edge id=":NODE_23_4" function="internal">
        <lane id=":NODE_23_4_0" index="0" speed="5.00" length="24.59" width="3.27" shape="26.09,203.86,271.38 22.56,202.78,271.34 19.60,199.03,271.28 17.21,192.61,271.20 15.39,183.52,271.09"/>
    </edge>
    <edge id=":NODE_23_5" function="internal">
        <lane id=":NODE_23_5_0" index="0" speed="5.50" length="14.63" width="3.46" shape="18.44,183.07,271.08 19.51,188.17,271.14 21.05,191.79,271.19 23.06,193.91,271.22 25.54,194.55,271.25"/>
    </edge>
    <edge id=":NODE_23_6" function="internal">
        <lane id=":NODE_23_6_0" index="0" speed="5.00" length="11.43" width="3.46" shape="18.44,183.07,271.08 19.29,186.43,271.09 20.74,188.81,271.10 22.79,190.23,271.11 25.44,190.68,271.12"/>
    </edge>
    <edge id=":NODE_23_7" function="internal">
        <lane id=":NODE_23_7_0" index="0" speed="5.50" length="30.80" width="3.27" shape="18.44,183.07,271.08 19.11,189.25,271.20 19.90,198.40,271.39 20.56,207.55,271.57 20.85,213.76,271.69"/>
    </edge>
    <edge id=":NODE_24_0" function="internal">
        <lane id=":NODE_24_0_0" index="0" speed="5.00" length="20.91" width="3.27" shape="10.42,149.89,269.60 7.11,129.24,269.40"/>
    </edge>
    <edge id=":NODE_24_1" function="internal">
        <lane id=":NODE_24_1_0" index="0" speed="5.00" length="5.21" width="3.46" shape="10.42,149.89,269.60 10.28,144.68,269.64"/>
    </edge>
    <edge id=":NODE_24_6" function="internal">
        <lane id=":NODE_24_6_0" index="0" speed="5.00" length="13.91" width="3.46" shape="10.28,144.68,269.64 10.27,144.12,269.64 11.76,139.95,269.67 14.89,137.38,269.69 19.66,136.41,269.72"/>
    </edge>
    <edge id=":NODE_24_2" function="internal">
        <lane id=":NODE_24_2_0" index="0" speed="5.00" length="13.00" width="3.27" shape="19.78,140.10,269.80 16.61,140.80,269.76 14.53,142.58,269.72 13.54,145.46,269.68 13.64,149.43,269.63"/>
    </edge>
    <edge id=":NODE_24_3" function="internal">
        <lane id=":NODE_24_3_0" index="0" speed="5.00" length="18.49" width="3.27" shape="19.78,140.10,269.80 15.01,139.58,269.70 11.31,137.60,269.61 8.68,134.15,269.51 7.11,129.24,269.40"/>
    </edge>
    <edge id=":NODE_24_4" function="internal">
        <lane id=":NODE_24_4_0" index="0" speed="5.00" length="13.52" width="3.46" shape="10.16,128.68,269.43 11.34,132.15,269.51 13.31,134.60,269.58 16.09,136.02,269.64 19.66,136.41,269.72"/>
    </edge>
    <edge id=":NODE_24_5" function="internal">
        <lane id=":NODE_24_5_0" index="0" speed="5.00" length="21.04" width="3.27" shape="10.16,128.68,269.43 13.64,149.43,269.63"/>
    </edge>
    <edge id=":NODE_25_0" function="internal">
        <lane id=":NODE_25_0_0" index="0" speed="5.00" length="10.32" width="3.27" shape="10.90,87.01,268.16 8.43,87.54,268.15 6.72,88.93,268.15 5.78,91.20,268.14 5.61,94.33,268.13"/>
    </edge>
    <edge id=":NODE_25_1" function="internal">
        <lane id=":NODE_25_1_0" index="0" speed="5.00" length="12.80" width="3.09" shape="4.51,68.21,267.64 5.04,72.45,267.76 6.26,75.47,267.85 8.17,77.27,267.92 10.75,77.83,268.00"/>
    </edge>
    <edge id=":NODE_25_2" function="internal">
        <lane id=":NODE_25_2_0" index="0" speed="5.00" length="26.15" width="3.27" shape="4.51,68.21,267.64 5.61,94.33,268.13"/>
    </edge>
    <edge id=":NODE_26_0" function="internal">
        <lane id=":NODE_26_0_0" index="0" speed="5.00" length="13.53" width="3.27" shape="14.85,23.14,266.50 11.19,20.80,266.47 8.29,20.36,266.45 6.12,21.81,266.43 4.70,25.16,266.41"/>
    </edge>
    <edge id=":NODE_26_1" function="internal">
        <lane id=":NODE_26_1_0" index="0" speed="5.00" length="26.96" width="3.00" shape="14.85,23.14,266.50 10.34,17.37,266.29 10.04,11.58,266.13 13.52,6.53,265.96 20.32,2.92,265.74"/>
    </edge>
    <edge id=":NODE_26_2" function="internal">
        <lane id=":NODE_26_2_0" index="0" speed="5.00" length="20.66" width="3.46" shape="21.24,5.83,265.75 15.28,8.57,265.94 12.64,11.86,266.06 13.33,15.72,266.17 17.33,20.14,266.34"/>
    </edge>
    <edge id=":NODE_26_3" function="internal">